!-Generator IDFEditor 1.44
!-Option SortedOrder

!-NOTE: All comments with '!-' are ignored by the IDFEditor and are generated automatically.
!-      Use '!' comments if they need to be retained when using the IDFEditor.


!-   ===========  ALL OBJECTS IN CLASS: VERSION ===========

Version,
    8.3;                     !- Version Identifier


!-   ===========  ALL OBJECTS IN CLASS: BUILDING ===========

Building,
    roof_alone,              !- Name
    0,                       !- North Axis {deg}
    Suburbs,                 !- Terrain
    ,                        !- Loads Convergence Tolerance Value
    ,                        !- Temperature Convergence Tolerance Value {deltaC}
    FullExterior,            !- Solar Distribution
    25,                      !- Maximum Number of Warmup Days
    6;                       !- Minimum Number of Warmup Days


!-   ===========  ALL OBJECTS IN CLASS: HEATBALANCEALGORITHM ===========

HeatBalanceAlgorithm,
    ConductionTransferFunction,  !- Algorithm
    200,                     !- Surface Temperature Upper Limit {C}
    1E-20,                   !- Minimum Surface Convection Heat Transfer Coefficient Value {W/m2-K}
    1000;                    !- Maximum Surface Convection Heat Transfer Coefficient Value {W/m2-K}


!-   ===========  ALL OBJECTS IN CLASS: TIMESTEP ===========

Timestep,
    6;                       !- Number of Timesteps per Hour


!-   ===========  ALL OBJECTS IN CLASS: SITE:LOCATION ===========

Site:Location,
    16159A,                  !- Name
    0.0,                     !- Latitude {deg}
    0.0,                     !- Longitude {deg}
    0.0,                     !- Time Zone {hr}
    0.0;                     !- Elevation {m}


!-   ===========  ALL OBJECTS IN CLASS: RUNPERIOD ===========

RunPeriod,
    Period1,                 !- Name
    1,                       !- Begin Month
    1,                       !- Begin Day of Month
    12,                      !- End Month
    31,                      !- End Day of Month
    UseWeatherFile,          !- Day of Week for Start Day
    Yes,                     !- Use Weather File Holidays and Special Days
    Yes,                     !- Use Weather File Daylight Saving Period
    No,                      !- Apply Weekend Holiday Rule
    Yes,                     !- Use Weather File Rain Indicators
    Yes,                     !- Use Weather File Snow Indicators
    1,                       !- Number of Times Runperiod to be Repeated
    Yes;                     !- Increment Day of Week on repeat


!-   ===========  ALL OBJECTS IN CLASS: SCHEDULETYPELIMITS ===========

ScheduleTypeLimits,
    Any Number;              !- Name

ScheduleTypeLimits,
    Fraction,                !- Name
    0.0,                     !- Lower Limit Value
    1.0,                     !- Upper Limit Value
    CONTINUOUS;              !- Numeric Type

ScheduleTypeLimits,
    Temperature,             !- Name
    -60,                     !- Lower Limit Value
    200,                     !- Upper Limit Value
    CONTINUOUS;              !- Numeric Type

ScheduleTypeLimits,
    On/Off,                  !- Name
    0,                       !- Lower Limit Value
    1,                       !- Upper Limit Value
    DISCRETE;                !- Numeric Type

ScheduleTypeLimits,
    Control Type,            !- Name
    0,                       !- Lower Limit Value
    4,                       !- Upper Limit Value
    DISCRETE;                !- Numeric Type

ScheduleTypeLimits,
    Humidity,                !- Name
    10,                      !- Lower Limit Value
    90,                      !- Upper Limit Value
    CONTINUOUS;              !- Numeric Type


!-   ===========  ALL OBJECTS IN CLASS: SCHEDULE:COMPACT ===========

Schedule:Compact,
    HVACTemplate-Always 3,   !- Name
    Any Number,              !- Schedule Type Limits Name
    Through: 12/31,          !- Field 1
    For: AllDays,            !- Field 2
    Until: 24:00,            !- Field 3
    3;                       !- Field 4


!-   ===========  ALL OBJECTS IN CLASS: SCHEDULE:CONSTANT ===========

!$$ setpoint 3
Schedule:Constant,
    Tsurface,                !- Name
    Temperature,             !- Schedule Type Limits Name
    24;                      !- Hourly Value


!-   ===========  ALL OBJECTS IN CLASS: MATERIAL ===========

!$$ isol_ep 3
!$$ isol_cond 4
!$$ isol_dens 5
!$$ isol_spec 6
!$$ isol_emis 7
!$$ isol_absSol 8
!$$ isol_absVis 9
Material,
    Roof Insulation,         !- Name
    MediumRough,             !- Roughness
    0.1,                     !- Thickness {m}
    0.0288,                  !- Conductivity {W/m-K}
    42.4,                    !- Density {kg/m3}
    1212.2,                  !- Specific Heat {J/kg-K}
    0.9000,                  !- Thermal Absorptance
    0.7000,                  !- Solar Absorptance
    0.7000;                  !- Visible Absorptance

!$$ met_ep 3
!$$ met_cond 4
!$$ met_dens 5
!$$ met_spec 6
!$$ met_emis 7
!$$ met_absSol 8
!$$ met_absVis 9
Material,
    Metal Decking,           !- Name
    MediumSmooth,            !- Roughness
    0.0015,                  !- Thickness {m}
    45.216,                  !- Conductivity {W/m-K}
    7824,                    !- Density {kg/m3}
    501.6,                   !- Specific Heat {J/kg-K}
    0.9000,                  !- Thermal Absorptance
    0.7000,                  !- Solar Absorptance
    0.3000;                  !- Visible Absorptance

!$$ memb_ep 3
!$$ memb_cond 4
!$$ memb_dens 5
!$$ memb_spec 6
!$$ memb_emis 7
!$$ memb_absSol 8
!$$ memb_absVis 9
Material,
    Built-up Roofing,        !- Name
    VeryRough,               !- Roughness
    0.009525,                !- Thickness {m}
    0.16225,                 !- Conductivity {W/m-K}
    1120,                    !- Density {kg/m3}
    1463,                    !- Specific Heat {J/kg-K}
    0.9000,                  !- Thermal Absorptance
    0.7000,                  !- Solar Absorptance
    0.7000;                  !- Visible Absorptance


!-   ===========  ALL OBJECTS IN CLASS: MATERIAL:NOMASS ===========

Material:NoMass,
    LowResMat,               !- Name
    MediumRough,             !- Roughness
    0.001,                   !- Thermal Resistance {m2-K/W}
    0.9,                     !- Thermal Absorptance
    0.7,                     !- Solar Absorptance
    0.7;                     !- Visible Absorptance


!-   ===========  ALL OBJECTS IN CLASS: CONSTRUCTION ===========

Construction,
    IEAD Non-res Roof,       !- Name
    Built-up Roofing,        !- Outside Layer
    Roof Insulation,         !- Layer 2
    Metal Decking;           !- Layer 3

Construction,
    LowResWall,              !- Name
    LowResMat;               !- Outside Layer


!-   ===========  ALL OBJECTS IN CLASS: GLOBALGEOMETRYRULES ===========

GlobalGeometryRules,
    UpperLeftCorner,         !- Starting Vertex Position
    Counterclockwise,        !- Vertex Entry Direction
    Absolute,                !- Coordinate System
    Relative,                !- Daylighting Reference Point Coordinate System
    Relative;                !- Rectangular Surface Coordinate System


!-   ===========  ALL OBJECTS IN CLASS: ZONE ===========

Zone,
    Zone1,                   !- Name
    0,                       !- Direction of Relative North {deg}
    0,                       !- X Origin {m}
    0,                       !- Y Origin {m}
    0,                       !- Z Origin {m}
    1,                       !- Type
    1,                       !- Multiplier
    4,                       !- Ceiling Height {m}
    64,                      !- Volume {m3}
    16,                      !- Floor Area {m2}
    ,                        !- Zone Inside Convection Algorithm
    ,                        !- Zone Outside Convection Algorithm
    Yes;                     !- Part of Total Floor Area


!-   ===========  ALL OBJECTS IN CLASS: BUILDINGSURFACE:DETAILED ===========

BuildingSurface:Detailed,
    Building_Roof,           !- Name
    Roof,                    !- Surface Type
    IEAD Non-res Roof,       !- Construction Name
    Zone1,                   !- Zone Name
    Outdoors,                !- Outside Boundary Condition
    ,                        !- Outside Boundary Condition Object
    SunExposed,              !- Sun Exposure
    WindExposed,             !- Wind Exposure
    AutoCalculate,           !- View Factor to Ground
    4,                       !- Number of Vertices
    0.000000000000,          !- Vertex 1 X-coordinate {m}
    4.000000000000,          !- Vertex 1 Y-coordinate {m}
    4.000000000000,          !- Vertex 1 Z-coordinate {m}
    0.000000000000,          !- Vertex 2 X-coordinate {m}
    0.000000000000,          !- Vertex 2 Y-coordinate {m}
    4.000000000000,          !- Vertex 2 Z-coordinate {m}
    4.000000000000,          !- Vertex 3 X-coordinate {m}
    0.000000000000,          !- Vertex 3 Y-coordinate {m}
    4.000000000000,          !- Vertex 3 Z-coordinate {m}
    4.000000000000,          !- Vertex 4 X-coordinate {m}
    4.000000000000,          !- Vertex 4 Y-coordinate {m}
    4.000000000000;          !- Vertex 4 Z-coordinate {m}

BuildingSurface:Detailed,
    25A939,                  !- Name
    Wall,                    !- Surface Type
    LowResWall,              !- Construction Name
    Zone1,                   !- Zone Name
    OtherSideCoefficients,   !- Outside Boundary Condition
    FixedTemperature,        !- Outside Boundary Condition Object
    NoSun,                   !- Sun Exposure
    NoWind,                  !- Wind Exposure
    ,                        !- View Factor to Ground
    4,                       !- Number of Vertices
    0.000000000000,          !- Vertex 1 X-coordinate {m}
    0.000000000000,          !- Vertex 1 Y-coordinate {m}
    4.000000000000,          !- Vertex 1 Z-coordinate {m}
    0.000000000000,          !- Vertex 2 X-coordinate {m}
    0.000000000000,          !- Vertex 2 Y-coordinate {m}
    0,                       !- Vertex 2 Z-coordinate {m}
    4.000000000000,          !- Vertex 3 X-coordinate {m}
    0.000000000000,          !- Vertex 3 Y-coordinate {m}
    0,                       !- Vertex 3 Z-coordinate {m}
    4.000000000000,          !- Vertex 4 X-coordinate {m}
    0.000000000000,          !- Vertex 4 Y-coordinate {m}
    4.000000000000;          !- Vertex 4 Z-coordinate {m}

BuildingSurface:Detailed,
    D17F8B,                  !- Name
    Wall,                    !- Surface Type
    LowResWall,              !- Construction Name
    Zone1,                   !- Zone Name
    OtherSideCoefficients,   !- Outside Boundary Condition
    FixedTemperature,        !- Outside Boundary Condition Object
    NoSun,                   !- Sun Exposure
    NoWind,                  !- Wind Exposure
    ,                        !- View Factor to Ground
    4,                       !- Number of Vertices
    4.000000000000,          !- Vertex 1 X-coordinate {m}
    0.000000000000,          !- Vertex 1 Y-coordinate {m}
    4.000000000000,          !- Vertex 1 Z-coordinate {m}
    4.000000000000,          !- Vertex 2 X-coordinate {m}
    0.000000000000,          !- Vertex 2 Y-coordinate {m}
    0,                       !- Vertex 2 Z-coordinate {m}
    4.000000000000,          !- Vertex 3 X-coordinate {m}
    4.000000000000,          !- Vertex 3 Y-coordinate {m}
    0,                       !- Vertex 3 Z-coordinate {m}
    4.000000000000,          !- Vertex 4 X-coordinate {m}
    4.000000000000,          !- Vertex 4 Y-coordinate {m}
    4.000000000000;          !- Vertex 4 Z-coordinate {m}

BuildingSurface:Detailed,
    A46ADF,                  !- Name
    Wall,                    !- Surface Type
    LowResWall,              !- Construction Name
    Zone1,                   !- Zone Name
    OtherSideCoefficients,   !- Outside Boundary Condition
    FixedTemperature,        !- Outside Boundary Condition Object
    NoSun,                   !- Sun Exposure
    NoWind,                  !- Wind Exposure
    ,                        !- View Factor to Ground
    4,                       !- Number of Vertices
    4.000000000000,          !- Vertex 1 X-coordinate {m}
    4.000000000000,          !- Vertex 1 Y-coordinate {m}
    4.000000000000,          !- Vertex 1 Z-coordinate {m}
    4.000000000000,          !- Vertex 2 X-coordinate {m}
    4.000000000000,          !- Vertex 2 Y-coordinate {m}
    0,                       !- Vertex 2 Z-coordinate {m}
    0.000000000000,          !- Vertex 3 X-coordinate {m}
    4.000000000000,          !- Vertex 3 Y-coordinate {m}
    0,                       !- Vertex 3 Z-coordinate {m}
    0.000000000000,          !- Vertex 4 X-coordinate {m}
    4.000000000000,          !- Vertex 4 Y-coordinate {m}
    4.000000000000;          !- Vertex 4 Z-coordinate {m}

BuildingSurface:Detailed,
    DAF5F3,                  !- Name
    Wall,                    !- Surface Type
    LowResWall,              !- Construction Name
    Zone1,                   !- Zone Name
    OtherSideCoefficients,   !- Outside Boundary Condition
    FixedTemperature,        !- Outside Boundary Condition Object
    NoSun,                   !- Sun Exposure
    NoWind,                  !- Wind Exposure
    ,                        !- View Factor to Ground
    4,                       !- Number of Vertices
    0.000000000000,          !- Vertex 1 X-coordinate {m}
    4.000000000000,          !- Vertex 1 Y-coordinate {m}
    4.000000000000,          !- Vertex 1 Z-coordinate {m}
    0.000000000000,          !- Vertex 2 X-coordinate {m}
    4.000000000000,          !- Vertex 2 Y-coordinate {m}
    0,                       !- Vertex 2 Z-coordinate {m}
    0.000000000000,          !- Vertex 3 X-coordinate {m}
    0.000000000000,          !- Vertex 3 Y-coordinate {m}
    0,                       !- Vertex 3 Z-coordinate {m}
    0.000000000000,          !- Vertex 4 X-coordinate {m}
    0.000000000000,          !- Vertex 4 Y-coordinate {m}
    4.000000000000;          !- Vertex 4 Z-coordinate {m}

BuildingSurface:Detailed,
    48A488,                  !- Name
    Floor,                   !- Surface Type
    LowResWall,              !- Construction Name
    Zone1,                   !- Zone Name
    OtherSideCoefficients,   !- Outside Boundary Condition
    FixedTemperature,        !- Outside Boundary Condition Object
    NoSun,                   !- Sun Exposure
    NoWind,                  !- Wind Exposure
    ,                        !- View Factor to Ground
    4,                       !- Number of Vertices
    4.000000000000,          !- Vertex 1 X-coordinate {m}
    4.000000000000,          !- Vertex 1 Y-coordinate {m}
    0,                       !- Vertex 1 Z-coordinate {m}
    4.000000000000,          !- Vertex 2 X-coordinate {m}
    0.000000000000,          !- Vertex 2 Y-coordinate {m}
    0,                       !- Vertex 2 Z-coordinate {m}
    0.000000000000,          !- Vertex 3 X-coordinate {m}
    0.000000000000,          !- Vertex 3 Y-coordinate {m}
    0,                       !- Vertex 3 Z-coordinate {m}
    0.000000000000,          !- Vertex 4 X-coordinate {m}
    4.000000000000,          !- Vertex 4 Y-coordinate {m}
    0;                       !- Vertex 4 Z-coordinate {m}


!-   ===========  ALL OBJECTS IN CLASS: SURFACEPROPERTY:OTHERSIDECOEFFICIENTS ===========

SurfaceProperty:OtherSideCoefficients,
    FixedTemperature,        !- Name
    0,                       !- Combined Convective/Radiative Film Coefficient {W/m2-K}
    ,                        !- Constant Temperature {C}
    ,                        !- Constant Temperature Coefficient
    ,                        !- External Dry-Bulb Temperature Coefficient
    ,                        !- Ground Temperature Coefficient
    ,                        !- Wind Speed Coefficient
    ,                        !- Zone Air Temperature Coefficient
    Tsurface,                !- Constant Temperature Schedule Name
    No,                      !- Sinusoidal Variation of Constant Temperature Coefficient
    24;                      !- Period of Sinusoidal Variation {hr}


!-   ===========  ALL OBJECTS IN CLASS: ZONECONTROL:THERMOSTAT ===========

ZoneControl:Thermostat,
    Zone1 Thermostat,        !- Name
    Zone1,                   !- Zone or ZoneList Name
    HVACTemplate-Always 3,   !- Control Type Schedule Name
    ThermostatSetpoint:SingleHeatingOrCooling,  !- Control 1 Object Type
    UniqueSetPoint;          !- Control 1 Name


!-   ===========  ALL OBJECTS IN CLASS: THERMOSTATSETPOINT:SINGLEHEATINGORCOOLING ===========

ThermostatSetpoint:SingleHeatingOrCooling,
    UniqueSetPoint,          !- Name
    Tsurface;                !- Setpoint Temperature Schedule Name


!-   ===========  ALL OBJECTS IN CLASS: ZONEHVAC:IDEALLOADSAIRSYSTEM ===========

ZoneHVAC:IdealLoadsAirSystem,
    Zone1 Ideal Loads Air System,  !- Name
    ,                        !- Availability Schedule Name
    Zone1 Ideal Loads Supply Inlet,  !- Zone Supply Air Node Name
    ,                        !- Zone Exhaust Air Node Name
    50,                      !- Maximum Heating Supply Air Temperature {C}
    13,                      !- Minimum Cooling Supply Air Temperature {C}
    0.0156,                  !- Maximum Heating Supply Air Humidity Ratio {kgWater/kgDryAir}
    0.0077,                  !- Minimum Cooling Supply Air Humidity Ratio {kgWater/kgDryAir}
    NoLimit,                 !- Heating Limit
    ,                        !- Maximum Heating Air Flow Rate {m3/s}
    ,                        !- Maximum Sensible Heating Capacity {W}
    NoLimit,                 !- Cooling Limit
    ,                        !- Maximum Cooling Air Flow Rate {m3/s}
    ,                        !- Maximum Total Cooling Capacity {W}
    ,                        !- Heating Availability Schedule Name
    ,                        !- Cooling Availability Schedule Name
    ConstantSensibleHeatRatio,  !- Dehumidification Control Type
    0.7,                     !- Cooling Sensible Heat Ratio {dimensionless}
    None,                    !- Humidification Control Type
    ,                        !- Design Specification Outdoor Air Object Name
    ,                        !- Outdoor Air Inlet Node Name
    None,                    !- Demand Controlled Ventilation Type
    NoEconomizer,            !- Outdoor Air Economizer Type
    None,                    !- Heat Recovery Type
    0.7,                     !- Sensible Heat Recovery Effectiveness {dimensionless}
    0.65;                    !- Latent Heat Recovery Effectiveness {dimensionless}


!-   ===========  ALL OBJECTS IN CLASS: ZONEHVAC:EQUIPMENTLIST ===========

ZoneHVAC:EquipmentList,
    Zone1 Equipment,         !- Name
    ZoneHVAC:IdealLoadsAirSystem,  !- Zone Equipment 1 Object Type
    Zone1 Ideal Loads Air System,  !- Zone Equipment 1 Name
    1,                       !- Zone Equipment 1 Cooling Sequence
    1;                       !- Zone Equipment 1 Heating or No-Load Sequence


!-   ===========  ALL OBJECTS IN CLASS: ZONEHVAC:EQUIPMENTCONNECTIONS ===========

ZoneHVAC:EquipmentConnections,
    Zone1,                   !- Zone Name
    Zone1 Equipment,         !- Zone Conditioning Equipment List Name
    Zone1 Ideal Loads Supply Inlet,  !- Zone Air Inlet Node or NodeList Name
    ,                        !- Zone Air Exhaust Node or NodeList Name
    Zone1 Zone Air Node,     !- Zone Air Node Name
    Zone1 Return Outlet;     !- Zone Return Air Node Name


!-   ===========  ALL OBJECTS IN CLASS: OUTPUT:VARIABLEDICTIONARY ===========

Output:VariableDictionary,
    regular;                 !- Key Field


!-   ===========  ALL OBJECTS IN CLASS: OUTPUT:SURFACES:LIST ===========

Output:Surfaces:List,
    Details;                 !- Report Type


!-   ===========  ALL OBJECTS IN CLASS: OUTPUT:VARIABLE ===========

Output:Variable,
    *,                       !- Key Value
    Site Outdoor Air Drybulb Temperature,  !- Variable Name
    HOURLY;                  !- Reporting Frequency

Output:Variable,
    *,                       !- Key Value
    Site Sky Temperature ,   !- Variable Name
    Hourly;                  !- Reporting Frequency

Output:Variable,
    *,                       !- Key Value
    Site Outdoor Air Relative Humidity ,  !- Variable Name
    Hourly;                  !- Reporting Frequency

Output:Variable,
    *,                       !- Key Value
    Site Outdoor Air Humidity Ratio ,  !- Variable Name
    Hourly;                  !- Reporting Frequency

Output:Variable,
    *,                       !- Key Value
    Site Precipitation Depth ,  !- Variable Name
    Hourly;                  !- Reporting Frequency

Output:Variable,
    *,                       !- Key Value
    Site Diffuse Solar Radiation Rate per Area ,  !- Variable Name
    Hourly;                  !- Reporting Frequency

Output:Variable,
    *,                       !- Key Value
    Site Direct Solar Radiation Rate per Area ,  !- Variable Name
    Hourly;                  !- Reporting Frequency

Output:Variable,
    *,                       !- Key Value
    Surface Average Face Conduction Heat Gain Rate ,  !- Variable Name
    Hourly;                  !- Reporting Frequency

Output:Variable,
    *,                       !- Key Value
    Surface Average Face Conduction Heat Loss Rate ,  !- Variable Name
    Hourly;                  !- Reporting Frequency

Output:Variable,
    *,                       !- Key Value
    Surface Average Face Conduction Heat Transfer Rate ,  !- Variable Name
    Hourly;                  !- Reporting Frequency

Output:Variable,
    *,                       !- Key Value
    Surface Heat Storage Gain Rate ,  !- Variable Name
    Hourly;                  !- Reporting Frequency

Output:Variable,
    *,                       !- Key Value
    Surface Heat Storage Loss Rate ,  !- Variable Name
    Hourly;                  !- Reporting Frequency

Output:Variable,
    *,                       !- Key Value
    Surface Inside Face Conduction Heat Transfer Rate ,  !- Variable Name
    Hourly;                  !- Reporting Frequency

Output:Variable,
    *,                       !- Key Value
    Surface Inside Face Temperature ,  !- Variable Name
    Hourly;                  !- Reporting Frequency

Output:Variable,
    *,                       !- Key Value
    Surface Outside Face Temperature ,  !- Variable Name
    Hourly;                  !- Reporting Frequency

Output:Variable,
    *,                       !- Key Value
    Surface Outside Face Incident Beam Solar Radiation Rate per Area ,  !- Variable Name
    Hourly;                  !- Reporting Frequency

Output:Variable,
    *,                       !- Key Value
    Surface Outside Face Incident Sky Diffuse Solar Radiation Rate per Area ,  !- Variable Name
    Hourly;                  !- Reporting Frequency

Output:Variable,
    *,                       !- Key Value
    Zone Air Relative Humidity ,  !- Variable Name
    Hourly;                  !- Reporting Frequency

Output:Variable,
    *,                       !- Key Value
    Zone Air Temperature ,   !- Variable Name
    Hourly;                  !- Reporting Frequency

Output:Variable,
    *,                       !- Key Value
    Zone Ideal Loads Zone Latent Cooling Rate ,  !- Variable Name
    Hourly;                  !- Reporting Frequency

Output:Variable,
    *,                       !- Key Value
    Zone Ideal Loads Zone Latent Heating Rate ,  !- Variable Name
    Hourly;                  !- Reporting Frequency

Output:Variable,
    *,                       !- Key Value
    Zone Ideal Loads Zone Sensible Cooling Rate ,  !- Variable Name
    Hourly;                  !- Reporting Frequency

Output:Variable,
    *,                       !- Key Value
    Zone Ideal Loads Zone Sensible Heating Rate ,  !- Variable Name
    Hourly;                  !- Reporting Frequency

Output:Variable,
    *,                       !- Key Value
    Zone Ideal Loads Zone Total Cooling Rate ,  !- Variable Name
    Hourly;                  !- Reporting Frequency

Output:Variable,
    *,                       !- Key Value
    Zone Ideal Loads Zone Total Heating Rate ,  !- Variable Name
    Hourly;                  !- Reporting Frequency

Output:Variable,
    *,                       !- Key Value
    Zone Outdoor Air Drybulb Temperature ,  !- Variable Name
    Hourly;                  !- Reporting Frequency

Output:Variable,
    *,                       !- Key Value
    Surface Outside Face Incident Solar Radiation Rate per Area ,  !- Variable Name
    Hourly;                  !- Reporting Frequency

Output:Variable,
    *,                       !- Key Value
    Surface Outside Face Convection Heat Gain Rate ,  !- Variable Name
    Hourly;                  !- Reporting Frequency

Output:Variable,
    *,                       !- Key Value
    Surface Outside Face Convection Heat Gain Rate,  !- Variable Name
    Hourly;                  !- Reporting Frequency

Output:Variable,
    *,                       !- Key Value
    Surface Outside Face Net Thermal Radiation Heat Gain Rate,  !- Variable Name
    Hourly;                  !- Reporting Frequency

Output:Variable,
    *,                       !- Key Value
    Surface Outside Face Solar Radiation Heat Gain Rate,  !- Variable Name
    Hourly;                  !- Reporting Frequency

