!-Generator IDFEditor 1.47
!-Option SortedOrder

!-NOTE: All comments with '!-' are ignored by the IDFEditor and are generated automatically.
!-      Use '!' comments if they need to be retained when using the IDFEditor.


!-   ===========  ALL OBJECTS IN CLASS: VERSION ===========

! BESTEST Case 610.idf
! Basic file description: BESTEST Low-Mass building loads test.
! Author:   R. H. Henninger,  GARD Analytics, Inc.
! Date:     March 17, 2000
! Run:      Annual run for Golden, CO location
! Building: Fictional 1 zone building with resistive walls and window.
!           Same as case 600 but with shade overhang on south wall above windows
! Internal: None.
! System:   None.
! Plant:    None.
! Modified: Conforms with Beta 4 input - shading schedule added
Version,
    .;                       !- Version Identifier


!-   ===========  ALL OBJECTS IN CLASS: BUILDING ===========

Building,
    BESTEST Case 610,        !- Name
    0,                       !- North Axis {deg}
    Country,                 !- Terrain
    3.9999999E-02,           !- Loads Convergence Tolerance Value
    4.0000002E-03,           !- Temperature Convergence Tolerance Value {deltaC}
    FullInteriorAndExterior, !- Solar Distribution
    ,                        !- Maximum Number of Warmup Days
    6;                       !- Minimum Number of Warmup Days


!-   ===========  ALL OBJECTS IN CLASS: SHADOWCALCULATION ===========

ShadowCalculation,
    AverageOverDaysInFrequency,  !- Calculation Method
    1;                       !- Calculation Frequency


!-   ===========  ALL OBJECTS IN CLASS: SURFACECONVECTIONALGORITHM:INSIDE ===========

SurfaceConvectionAlgorithm:Inside,
    TARP;                    !- Algorithm


!-   ===========  ALL OBJECTS IN CLASS: SURFACECONVECTIONALGORITHM:OUTSIDE ===========

SurfaceConvectionAlgorithm:Outside,
    DOE-2;                   !- Algorithm


!-   ===========  ALL OBJECTS IN CLASS: TIMESTEP ===========

Timestep,
    4;                       !- Number of Timesteps per Hour


!-   ===========  ALL OBJECTS IN CLASS: SITE:LOCATION ===========

Site:Location,
    GOLDEN COLORADO,         !- Name
    39.80,                   !- Latitude {deg}
    -104.90,                 !- Longitude {deg}
    -7.000000,               !- Time Zone {hr}
    1609.0;                  !- Elevation {m}


!-   ===========  ALL OBJECTS IN CLASS: RUNPERIOD ===========

RunPeriod,
    ,                        !- Name
    1,                       !- Begin Month
    1,                       !- Begin Day of Month
    1,                       !- End Month
    31,                      !- End Day of Month
    ,                        !- Day of Week for Start Day
    ,                        !- Use Weather File Holidays and Special Days
    ,                        !- Use Weather File Daylight Saving Period
    ,                        !- Apply Weekend Holiday Rule
    ,                        !- Use Weather File Rain Indicators
    ;                        !- Use Weather File Snow Indicators


!-   ===========  ALL OBJECTS IN CLASS: SITE:GROUNDTEMPERATURE:BUILDINGSURFACE ===========

Site:GroundTemperature:BuildingSurface,
    10.0,                    !- January Ground Temperature {C}
    10.0,                    !- February Ground Temperature {C}
    10.0,                    !- March Ground Temperature {C}
    10.0,                    !- April Ground Temperature {C}
    10.0,                    !- May Ground Temperature {C}
    10.0,                    !- June Ground Temperature {C}
    10.0,                    !- July Ground Temperature {C}
    10.0,                    !- August Ground Temperature {C}
    10.0,                    !- September Ground Temperature {C}
    10.0,                    !- October Ground Temperature {C}
    10.0,                    !- November Ground Temperature {C}
    10.0;                    !- December Ground Temperature {C}


!-   ===========  ALL OBJECTS IN CLASS: SITE:GROUNDREFLECTANCE ===========

!$$ GroundReflec [1:12]
Site:GroundReflectance,
    0.2,                     !- January Ground Reflectance {dimensionless}
    0.2,                     !- February Ground Reflectance {dimensionless}
    0.2,                     !- March Ground Reflectance {dimensionless}
    0.2,                     !- April Ground Reflectance {dimensionless}
    0.2,                     !- May Ground Reflectance {dimensionless}
    0.2,                     !- June Ground Reflectance {dimensionless}
    0.2,                     !- July Ground Reflectance {dimensionless}
    0.2,                     !- August Ground Reflectance {dimensionless}
    0.2,                     !- September Ground Reflectance {dimensionless}
    0.2,                     !- October Ground Reflectance {dimensionless}
    0.2,                     !- November Ground Reflectance {dimensionless}
    0.2;                     !- December Ground Reflectance {dimensionless}


!-   ===========  ALL OBJECTS IN CLASS: SCHEDULETYPELIMITS ===========

ScheduleTypeLimits,
    Fraction,                !- Name
    0.0,                     !- Lower Limit Value
    1.0,                     !- Upper Limit Value
    Continuous;              !- Numeric Type

ScheduleTypeLimits,
    Temperature,             !- Name
    -60,                     !- Lower Limit Value
    200,                     !- Upper Limit Value
    Continuous;              !- Numeric Type

ScheduleTypeLimits,
    Control Type,            !- Name
    0,                       !- Lower Limit Value
    4,                       !- Upper Limit Value
    Discrete;                !- Numeric Type


!-   ===========  ALL OBJECTS IN CLASS: SCHEDULE:DAY:HOURLY ===========

Schedule:Day:Hourly,
    Day Sch 1,               !- Name
    Fraction,                !- Schedule Type Limits Name
    1,                       !- Hour 1
    1,                       !- Hour 2
    1,                       !- Hour 3
    1,                       !- Hour 4
    1,                       !- Hour 5
    1,                       !- Hour 6
    1,                       !- Hour 7
    1,                       !- Hour 8
    1,                       !- Hour 9
    1,                       !- Hour 10
    1,                       !- Hour 11
    1,                       !- Hour 12
    1,                       !- Hour 13
    1,                       !- Hour 14
    1,                       !- Hour 15
    1,                       !- Hour 16
    1,                       !- Hour 17
    1,                       !- Hour 18
    1,                       !- Hour 19
    1,                       !- Hour 20
    1,                       !- Hour 21
    1,                       !- Hour 22
    1,                       !- Hour 23
    1;                       !- Hour 24

Schedule:Day:Hourly,
    Day Sch 2,               !- Name
    Fraction,                !- Schedule Type Limits Name
    0,                       !- Hour 1
    0,                       !- Hour 2
    0,                       !- Hour 3
    0,                       !- Hour 4
    0,                       !- Hour 5
    0,                       !- Hour 6
    0,                       !- Hour 7
    0,                       !- Hour 8
    0,                       !- Hour 9
    0,                       !- Hour 10
    0,                       !- Hour 11
    0,                       !- Hour 12
    0,                       !- Hour 13
    0,                       !- Hour 14
    0,                       !- Hour 15
    0,                       !- Hour 16
    0,                       !- Hour 17
    0,                       !- Hour 18
    0,                       !- Hour 19
    0,                       !- Hour 20
    0,                       !- Hour 21
    0,                       !- Hour 22
    0,                       !- Hour 23
    0;                       !- Hour 24

! Next Arguments represent each hour of day
Schedule:Day:Hourly,
    Zone Heating Setpoint All Days,  !- Name
    Temperature,             !- Schedule Type Limits Name
    20.,                     !- Hour 1
    20.,                     !- Hour 2
    20.,                     !- Hour 3
    20.,                     !- Hour 4
    20.,                     !- Hour 5
    20.,                     !- Hour 6
    20.,                     !- Hour 7
    20.,                     !- Hour 8
    20.,                     !- Hour 9
    20.,                     !- Hour 10
    20.,                     !- Hour 11
    20.,                     !- Hour 12
    20.,                     !- Hour 13
    20.,                     !- Hour 14
    20.,                     !- Hour 15
    20.,                     !- Hour 16
    20.,                     !- Hour 17
    20.,                     !- Hour 18
    20.,                     !- Hour 19
    20.,                     !- Hour 20
    20.,                     !- Hour 21
    20.,                     !- Hour 22
    20.,                     !- Hour 23
    20.;                     !- Hour 24

! Next Arguments represent each hour of day
Schedule:Day:Hourly,
    Zone Cooling Setpoint All Days,  !- Name
    Temperature,             !- Schedule Type Limits Name
    27.,                     !- Hour 1
    27.,                     !- Hour 2
    27.,                     !- Hour 3
    27.,                     !- Hour 4
    27.,                     !- Hour 5
    27.,                     !- Hour 6
    27.,                     !- Hour 7
    27.,                     !- Hour 8
    27.,                     !- Hour 9
    27.,                     !- Hour 10
    27.,                     !- Hour 11
    27.,                     !- Hour 12
    27.,                     !- Hour 13
    27.,                     !- Hour 14
    27.,                     !- Hour 15
    27.,                     !- Hour 16
    27.,                     !- Hour 17
    27.,                     !- Hour 18
    27.,                     !- Hour 19
    27.,                     !- Hour 20
    27.,                     !- Hour 21
    27.,                     !- Hour 22
    27.,                     !- Hour 23
    27.;                     !- Hour 24

! Next Arguments represent each hour of day
Schedule:Day:Hourly,
    Control Type All Days,   !- Name
    Control Type,            !- Schedule Type Limits Name
    4,                       !- Hour 1
    4,                       !- Hour 2
    4,                       !- Hour 3
    4,                       !- Hour 4
    4,                       !- Hour 5
    4,                       !- Hour 6
    4,                       !- Hour 7
    4,                       !- Hour 8
    4,                       !- Hour 9
    4,                       !- Hour 10
    4,                       !- Hour 11
    4,                       !- Hour 12
    4,                       !- Hour 13
    4,                       !- Hour 14
    4,                       !- Hour 15
    4,                       !- Hour 16
    4,                       !- Hour 17
    4,                       !- Hour 18
    4,                       !- Hour 19
    4,                       !- Hour 20
    4,                       !- Hour 21
    4,                       !- Hour 22
    4,                       !- Hour 23
    4;                       !- Hour 24


!-   ===========  ALL OBJECTS IN CLASS: SCHEDULE:WEEK:DAILY ===========

Schedule:Week:Daily,
    Week Sch 1,              !- Name
    Day Sch 1,               !- Sunday Schedule:Day Name
    Day Sch 1,               !- Monday Schedule:Day Name
    Day Sch 1,               !- Tuesday Schedule:Day Name
    Day Sch 1,               !- Wednesday Schedule:Day Name
    Day Sch 1,               !- Thursday Schedule:Day Name
    Day Sch 1,               !- Friday Schedule:Day Name
    Day Sch 1,               !- Saturday Schedule:Day Name
    Day Sch 1,               !- Holiday Schedule:Day Name
    Day Sch 1,               !- SummerDesignDay Schedule:Day Name
    Day Sch 1,               !- WinterDesignDay Schedule:Day Name
    Day Sch 1,               !- CustomDay1 Schedule:Day Name
    Day Sch 1;               !- CustomDay2 Schedule:Day Name

Schedule:Week:Daily,
    Week Sch 2,              !- Name
    Day Sch 2,               !- Sunday Schedule:Day Name
    Day Sch 2,               !- Monday Schedule:Day Name
    Day Sch 2,               !- Tuesday Schedule:Day Name
    Day Sch 2,               !- Wednesday Schedule:Day Name
    Day Sch 2,               !- Thursday Schedule:Day Name
    Day Sch 2,               !- Friday Schedule:Day Name
    Day Sch 2,               !- Saturday Schedule:Day Name
    Day Sch 2,               !- Holiday Schedule:Day Name
    Day Sch 2,               !- SummerDesignDay Schedule:Day Name
    Day Sch 2,               !- WinterDesignDay Schedule:Day Name
    Day Sch 2,               !- CustomDay1 Schedule:Day Name
    Day Sch 2;               !- CustomDay2 Schedule:Day Name

! Next arguments are names (DaySchedules) for the days
Schedule:Week:Daily,
    Zone Heating Setpoint All Weeks,  !- Name
    Zone Heating Setpoint All Days,  !- Sunday Schedule:Day Name
    Zone Heating Setpoint All Days,  !- Monday Schedule:Day Name
    Zone Heating Setpoint All Days,  !- Tuesday Schedule:Day Name
    Zone Heating Setpoint All Days,  !- Wednesday Schedule:Day Name
    Zone Heating Setpoint All Days,  !- Thursday Schedule:Day Name
    Zone Heating Setpoint All Days,  !- Friday Schedule:Day Name
    Zone Heating Setpoint All Days,  !- Saturday Schedule:Day Name
    Zone Heating Setpoint All Days,  !- Holiday Schedule:Day Name
    Zone Heating Setpoint All Days,  !- SummerDesignDay Schedule:Day Name
    Zone Heating Setpoint All Days,  !- WinterDesignDay Schedule:Day Name
    Zone Heating Setpoint All Days,  !- CustomDay1 Schedule:Day Name
    Zone Heating Setpoint All Days;  !- CustomDay2 Schedule:Day Name

! Next arguments are names (DaySchedules) for the days
Schedule:Week:Daily,
    Zone Cooling Setpoint All Weeks,  !- Name
    Zone Cooling Setpoint All Days,  !- Sunday Schedule:Day Name
    Zone Cooling Setpoint All Days,  !- Monday Schedule:Day Name
    Zone Cooling Setpoint All Days,  !- Tuesday Schedule:Day Name
    Zone Cooling Setpoint All Days,  !- Wednesday Schedule:Day Name
    Zone Cooling Setpoint All Days,  !- Thursday Schedule:Day Name
    Zone Cooling Setpoint All Days,  !- Friday Schedule:Day Name
    Zone Cooling Setpoint All Days,  !- Saturday Schedule:Day Name
    Zone Cooling Setpoint All Days,  !- Holiday Schedule:Day Name
    Zone Cooling Setpoint All Days,  !- SummerDesignDay Schedule:Day Name
    Zone Cooling Setpoint All Days,  !- WinterDesignDay Schedule:Day Name
    Zone Cooling Setpoint All Days,  !- CustomDay1 Schedule:Day Name
    Zone Cooling Setpoint All Days;  !- CustomDay2 Schedule:Day Name

! Next arguments are names (DaySchedules) for the days
Schedule:Week:Daily,
    Control Type All Weeks,  !- Name
    Control Type All Days,   !- Sunday Schedule:Day Name
    Control Type All Days,   !- Monday Schedule:Day Name
    Control Type All Days,   !- Tuesday Schedule:Day Name
    Control Type All Days,   !- Wednesday Schedule:Day Name
    Control Type All Days,   !- Thursday Schedule:Day Name
    Control Type All Days,   !- Friday Schedule:Day Name
    Control Type All Days,   !- Saturday Schedule:Day Name
    Control Type All Days,   !- Holiday Schedule:Day Name
    Control Type All Days,   !- SummerDesignDay Schedule:Day Name
    Control Type All Days,   !- WinterDesignDay Schedule:Day Name
    Control Type All Days,   !- CustomDay1 Schedule:Day Name
    Control Type All Days;   !- CustomDay2 Schedule:Day Name


!-   ===========  ALL OBJECTS IN CLASS: SCHEDULE:YEAR ===========

Schedule:Year,
    Sch 1,                   !- Name
    Fraction,                !- Schedule Type Limits Name
    Week Sch 1,              !- Schedule:Week Name 1
    1,                       !- Start Month 1
    1,                       !- Start Day 1
    12,                      !- End Month 1
    31;                      !- End Day 1

Schedule:Year,
    Sch 2,                   !- Name
    Fraction,                !- Schedule Type Limits Name
    Week Sch 2,              !- Schedule:Week Name 1
    1,                       !- Start Month 1
    1,                       !- Start Day 1
    12,                      !- End Month 1
    31;                      !- End Day 1

! remaining arguments are grouped [Name (WeekSchedules),startmonth,startday,endmonth,endday]
! 18 periods allowed
Schedule:Year,
    Heating Setpoints,       !- Name
    Temperature,             !- Schedule Type Limits Name
    Zone Heating Setpoint All Weeks,  !- Schedule:Week Name 1
    1,                       !- Start Month 1
    1,                       !- Start Day 1
    12,                      !- End Month 1
    31;                      !- End Day 1

! remaining arguments are grouped [Name (WeekSchedules),startmonth,startday,endmonth,endday]
! 18 periods allowed
Schedule:Year,
    Cooling Setpoints,       !- Name
    Temperature,             !- Schedule Type Limits Name
    Zone Cooling Setpoint All Weeks,  !- Schedule:Week Name 1
    1,                       !- Start Month 1
    1,                       !- Start Day 1
    12,                      !- End Month 1
    31;                      !- End Day 1

! remaining arguments are grouped [Name (WeekSchedules),startmonth,startday,endmonth,endday]
! 18 periods allowed
Schedule:Year,
    Zone Control Type Sched, !- Name
    Control Type,            !- Schedule Type Limits Name
    Control Type All Weeks,  !- Schedule:Week Name 1
    1,                       !- Start Month 1
    1,                       !- Start Day 1
    12,                      !- End Month 1
    31;                      !- End Day 1


!-   ===========  ALL OBJECTS IN CLASS: MATERIAL ===========

! DesignDay,
!   DENVER CONSTANT WINTER-NOSUN,     ! Design Day Name
!     -17.22222    ,     ! Max Dry-Bulb {C}
!     0.0000000E+00,     ! Daily Temp Range {C}
!     -17.22222    ,     ! Wet-Bulb at Max {C}
!      83442.47    ,     ! Barometric Pressure {N/M**2}
!      4.115816    ,     ! Wind Speed {M/Sec}
!      169.0000    ,     ! Wind Direction {Degrees N=0, S=180}
!     0.0000000E+00,     ! Clearness {0.0 to 1.1}
!                 0,     ! Rain {0-no,1-yes}
!                 0,     ! Snow on ground {0-no,1-yes}
!                21,     ! Day of Month
!                 1,     ! Month
!            Monday,     ! Day Type
!                 0;     ! Daylight Savings Time Indicator
!
! DesignDay,
!  DENVER CONSTANT SUMMER-NOSUN,     ! Design Day Name
!     32.77778    ,     ! Max Dry-Bulb {C}
!     0.000000    ,     ! Daily Temp Range {C}
!     15.00000    ,     ! Wet-Bulb at Max {C}
!     84139.90    ,     ! Barometric Pressure {N/M**2}
!     3.971544    ,     ! Wind Speed {M/Sec}
!     146.0000    ,     ! Wind Direction {Degrees N=0, S=180}
!     0.0000      ,     ! Clearness {0.0 to 1.1}
!                0,     ! Rain {0-no,1-yes}
!                0,     ! Snow on ground {0-no,1-yes}
!               21,     ! Day of Month
!                7,     ! Month
!           Monday,     ! Day Type
!                0;     ! Daylight Savings Time Indicator
Material,
    PLASTERBOARD-1,          !- Name
    Rough,                   !- Roughness
    0.01200,                 !- Thickness {m}
    0.16000,                 !- Conductivity {W/m-K}
    950.000,                 !- Density {kg/m3}
    840.00,                  !- Specific Heat {J/kg-K}
    0.9000000,               !- Thermal Absorptance
    0.600000,                !- Solar Absorptance
    0.600000;                !- Visible Absorptance

!$$ WallInsulThick 3
Material,
    FIBERGLASS QUILT-1,      !- Name
    Rough,                   !- Roughness
    0.066,                   !- Thickness {m}
    0.040,                   !- Conductivity {W/m-K}
    12.000,                  !- Density {kg/m3}
    840.00,                  !- Specific Heat {J/kg-K}
    0.9000000,               !- Thermal Absorptance
    0.600000,                !- Solar Absorptance
    0.600000;                !- Visible Absorptance

Material,
    WOOD SIDING-1,           !- Name
    Rough,                   !- Roughness
    0.00900,                 !- Thickness {m}
    0.14000,                 !- Conductivity {W/m-K}
    530.000,                 !- Density {kg/m3}
    900.00,                  !- Specific Heat {J/kg-K}
    0.9000000,               !- Thermal Absorptance
    0.600000,                !- Solar Absorptance
    0.600000;                !- Visible Absorptance

Material,
    TIMBER FLOORING,         !- Name
    Rough,                   !- Roughness
    0.02500,                 !- Thickness {m}
    0.14000,                 !- Conductivity {W/m-K}
    650.000,                 !- Density {kg/m3}
    1200.0,                  !- Specific Heat {J/kg-K}
    0.9000000,               !- Thermal Absorptance
    0.600000,                !- Solar Absorptance
    0.600000;                !- Visible Absorptance

Material,
    PLASTERBOARD-2,          !- Name
    Rough,                   !- Roughness
    0.01000,                 !- Thickness {m}
    0.16000,                 !- Conductivity {W/m-K}
    950.000,                 !- Density {kg/m3}
    840.00,                  !- Specific Heat {J/kg-K}
    0.9000000,               !- Thermal Absorptance
    0.600000,                !- Solar Absorptance
    0.600000;                !- Visible Absorptance

!$$ RoofInsulThick 3
Material,
    FIBERGLASS QUILT-2,      !- Name
    Rough,                   !- Roughness
    0.1118,                  !- Thickness {m}
    0.040,                   !- Conductivity {W/m-K}
    12.000,                  !- Density {kg/m3}
    840.00,                  !- Specific Heat {J/kg-K}
    0.9000000,               !- Thermal Absorptance
    0.600000,                !- Solar Absorptance
    0.600000;                !- Visible Absorptance

Material,
    ROOF DECK,               !- Name
    Rough,                   !- Roughness
    0.01900,                 !- Thickness {m}
    0.14000,                 !- Conductivity {W/m-K}
    530.000,                 !- Density {kg/m3}
    900.00,                  !- Specific Heat {J/kg-K}
    0.9000000,               !- Thermal Absorptance
    0.600000,                !- Solar Absorptance
    0.600000;                !- Visible Absorptance


!-   ===========  ALL OBJECTS IN CLASS: MATERIAL:NOMASS ===========

!$$ FloorInsulResist 3
Material:NoMass,
    R-25 INSULATION,         !- Name
    Rough,                   !- Roughness
    25.075,                  !- Thermal Resistance {m2-K/W}
    0.9000000,               !- Thermal Absorptance
    0.600000,                !- Solar Absorptance
    0.600000;                !- Visible Absorptance


!-   ===========  ALL OBJECTS IN CLASS: WINDOWMATERIAL:GLAZING ===========

WindowMaterial:Glazing,
    Glass Type 1,            !- Name
    SpectralAverage,         !- Optical Data Type
    ,                        !- Window Glass Spectral Data Set Name
    0.003175,                !- Thickness {m}
    0.86156,                 !- Solar Transmittance at Normal Incidence
    0.07846,                 !- Front Side Solar Reflectance at Normal Incidence
    0.07846,                 !- Back Side Solar Reflectance at Normal Incidence
    0.91325,                 !- Visible Transmittance at Normal Incidence
    0.08200,                 !- Front Side Visible Reflectance at Normal Incidence
    0.08200,                 !- Back Side Visible Reflectance at Normal Incidence
    0.0,                     !- Infrared Transmittance at Normal Incidence
    0.84,                    !- Front Side Infrared Hemispherical Emissivity
    0.84,                    !- Back Side Infrared Hemispherical Emissivity
    1.06;                    !- Conductivity {W/m-K}


!-   ===========  ALL OBJECTS IN CLASS: WINDOWMATERIAL:GAS ===========

WindowMaterial:Gas,
    Air Space Resistance,    !- Name
    AIR,                     !- Gas Type
    0.013;                   !- Thickness {m}


!-   ===========  ALL OBJECTS IN CLASS: CONSTRUCTION ===========

! Material layer names follow:
Construction,
    LTWALL,                  !- Name
    WOOD SIDING-1,           !- Outside Layer
    FIBERGLASS QUILT-1,      !- Layer 2
    PLASTERBOARD-1;          !- Layer 3

! Material layer names follow:
Construction,
    LTFLOOR,                 !- Name
    R-25 INSULATION,         !- Outside Layer
    TIMBER FLOORING;         !- Layer 2

! Material layer names follow:
Construction,
    LTROOF,                  !- Name
    ROOF DECK,               !- Outside Layer
    FIBERGLASS QUILT-2,      !- Layer 2
    PLASTERBOARD-2;          !- Layer 3

!         0.,       !N2 [Density at 273K {kg/m3}] Used for type=CUSTOM
!         0.,       !N3 [Density temperature derivative {kg/m3-K}] Used for type=CUSTOM
!         0.,       !N4 [Conductivity {W/m-K}] Used for type=CUSTOM
!         0.,       !N5 [Conductivity temperature derivative {W/m-K2}] Used for type=CUSTOM
!         0.,       !N6 [Viscosity {kg/ms}] Used for type=CUSTOM
!         0.,       !N7 [Viscosity temperature derivative {kg/m-s-K}] Used for type=CUSTOM
!         0.,       !N8 [Prandtl number at 273K] Used for type=CUSTOM
!         0.;       !N9 [Prandtl number temperature derivative {1/K}] Used for type=CUSTOM
! Material layer names follow:
Construction,
    Double Pane Window,      !- Name
    Glass Type 1,            !- Outside Layer
    Air Space Resistance,    !- Layer 2
    Glass Type 1;            !- Layer 3


!-   ===========  ALL OBJECTS IN CLASS: GLOBALGEOMETRYRULES ===========

! ZoneCapacitanceMultiplier,1;
GlobalGeometryRules,
    UpperLeftCorner,         !- Starting Vertex Position
    Counterclockwise,        !- Vertex Entry Direction
    WorldCoordinateSystem;   !- Coordinate System


!-   ===========  ALL OBJECTS IN CLASS: ZONE ===========

Zone,
    ZONE ONE,                !- Name
    0,                       !- Direction of Relative North {deg}
    0,                       !- X Origin {m}
    0,                       !- Y Origin {m}
    0,                       !- Z Origin {m}
    1,                       !- Type
    1,                       !- Multiplier
    2.7000,                  !- Ceiling Height {m}
    129.6;                   !- Volume {m3}


!-   ===========  ALL OBJECTS IN CLASS: BUILDINGSURFACE:DETAILED ===========

BuildingSurface:Detailed,
    ZONE SURFACE NORTH,      !- Name
    Wall,                    !- Surface Type
    LTWALL,                  !- Construction Name
    ZONE ONE,                !- Zone Name
    Outdoors,                !- Outside Boundary Condition
    ,                        !- Outside Boundary Condition Object
    SunExposed,              !- Sun Exposure
    WindExposed,             !- Wind Exposure
    0.5000000,               !- View Factor to Ground
    4,                       !- Number of Vertices
    8.000000,                !- Vertex 1 X-coordinate {m}
    6.000000,                !- Vertex 1 Y-coordinate {m}
    2.700000,                !- Vertex 1 Z-coordinate {m}
    8.000000,                !- Vertex 2 X-coordinate {m}
    6.000000,                !- Vertex 2 Y-coordinate {m}
    0,                       !- Vertex 2 Z-coordinate {m}
    0,                       !- Vertex 3 X-coordinate {m}
    6.000000,                !- Vertex 3 Y-coordinate {m}
    0,                       !- Vertex 3 Z-coordinate {m}
    0,                       !- Vertex 4 X-coordinate {m}
    6.000000,                !- Vertex 4 Y-coordinate {m}
    2.700000;                !- Vertex 4 Z-coordinate {m}

BuildingSurface:Detailed,
    ZONE SURFACE EAST,       !- Name
    Wall,                    !- Surface Type
    LTWALL,                  !- Construction Name
    ZONE ONE,                !- Zone Name
    Outdoors,                !- Outside Boundary Condition
    ,                        !- Outside Boundary Condition Object
    SunExposed,              !- Sun Exposure
    WindExposed,             !- Wind Exposure
    0.5000000,               !- View Factor to Ground
    4,                       !- Number of Vertices
    8.000000,                !- Vertex 1 X-coordinate {m}
    0,                       !- Vertex 1 Y-coordinate {m}
    2.700000,                !- Vertex 1 Z-coordinate {m}
    8.000000,                !- Vertex 2 X-coordinate {m}
    0,                       !- Vertex 2 Y-coordinate {m}
    0,                       !- Vertex 2 Z-coordinate {m}
    8.000000,                !- Vertex 3 X-coordinate {m}
    6.000000,                !- Vertex 3 Y-coordinate {m}
    0,                       !- Vertex 3 Z-coordinate {m}
    8.000000,                !- Vertex 4 X-coordinate {m}
    6.000000,                !- Vertex 4 Y-coordinate {m}
    2.700000;                !- Vertex 4 Z-coordinate {m}

BuildingSurface:Detailed,
    ZONE SURFACE SOUTH,      !- Name
    Wall,                    !- Surface Type
    LTWALL,                  !- Construction Name
    ZONE ONE,                !- Zone Name
    Outdoors,                !- Outside Boundary Condition
    ,                        !- Outside Boundary Condition Object
    SunExposed,              !- Sun Exposure
    WindExposed,             !- Wind Exposure
    0.5000000,               !- View Factor to Ground
    4,                       !- Number of Vertices
    0,                       !- Vertex 1 X-coordinate {m}
    0,                       !- Vertex 1 Y-coordinate {m}
    2.700000,                !- Vertex 1 Z-coordinate {m}
    0,                       !- Vertex 2 X-coordinate {m}
    0,                       !- Vertex 2 Y-coordinate {m}
    0,                       !- Vertex 2 Z-coordinate {m}
    8.000000,                !- Vertex 3 X-coordinate {m}
    0,                       !- Vertex 3 Y-coordinate {m}
    0,                       !- Vertex 3 Z-coordinate {m}
    8.000000,                !- Vertex 4 X-coordinate {m}
    0,                       !- Vertex 4 Y-coordinate {m}
    2.700000;                !- Vertex 4 Z-coordinate {m}

BuildingSurface:Detailed,
    ZONE SURFACE WEST,       !- Name