!-Generator IDFEditor 1.44
!-Option SortedOrder

!-NOTE: All comments with '!-' are ignored by the IDFEditor and are generated automatically.
!-      Use '!' comments if they need to be retained when using the IDFEditor.


!-   ===========  ALL OBJECTS IN CLASS: VERSION ===========

Version,
    8.5;                     !- Version Identifier


!-   ===========  ALL OBJECTS IN CLASS: SIMULATIONCONTROL ===========
!$$ DoSizing 1
SimulationControl,
    Yes,                     !- Do Zone Sizing Calculation
    No,                      !- Do System Sizing Calculation
    No,                      !- Do Plant Sizing Calculation
    No,                      !- Run Simulation for Sizing Periods
    Yes;                     !- Run Simulation for Weather File Run Periods


!-   ===========  ALL OBJECTS IN CLASS: BUILDING ===========
!$$ Orientation 2
Building,
    Type620,                 !- Name
    0,                        !- North Axis {deg}
    Suburbs,                 !- Terrain
    ,                        !- Loads Convergence Tolerance Value
    ,                        !- Temperature Convergence Tolerance Value {deltaC}
    FullExterior,            !- Solar Distribution
    250,                     !- Maximum Number of Warmup Days
    6;                       !- Minimum Number of Warmup Days


!-   ===========  ALL OBJECTS IN CLASS: HEATBALANCEALGORITHM ===========

!$$ ConductionAlgo 1
HeatBalanceAlgorithm,
    ConductionTransferFunction,  !- Algorithm
    200,                     !- Surface Temperature Upper Limit {C}
    0.1,                     !- Minimum Surface Convection Heat Transfer Coefficient Value {W/m2-K}
    1000;                    !- Maximum Surface Convection Heat Transfer Coefficient Value {W/m2-K}


!-   ===========  ALL OBJECTS IN CLASS: TIMESTEP ===========

!$$ Timestep 1
Timestep,
    6;                       !- Number of Timesteps per Hour


!-   ===========  ALL OBJECTS IN CLASS: PROGRAMCONTROL ===========

ProgramControl,
    1;                       !- Number of Threads Allowed


!-   ===========  ALL OBJECTS IN CLASS: SIZINGPERIOD:WEATHERFILEDAYS ===========

SizingPeriod:WeatherFileDays,
    DesignRun,              !- Name
    1,                       !- Begin Month
    1,                       !- Begin Day of Month
    12,                      !- End Month
    31,                      !- End Day of Month
    Monday,                  !- Day of Week for Start Day
    Yes,                     !- Use Weather File Daylight Saving Period
    Yes;                     !- Use Weather File Rain and Snow Indicators


!-   ===========  ALL OBJECTS IN CLASS: RUNPERIOD ===========
!$$ RunPeriod 12
RunPeriod,
    Run Period 1,            !- Name
    1,                       !- Begin Month
    1,                       !- Begin Day of Month
    12,                       !- End Month
    31,                      !- End Day of Month
    UseWeatherFile,          !- Day of Week for Start Day
    No,                      !- Use Weather File Holidays and Special Days
    No,                      !- Use Weather File Daylight Saving Period
    No,                      !- Apply Weekend Holiday Rule
    Yes,                     !- Use Weather File Rain Indicators
    Yes,                     !- Use Weather File Snow Indicators
    1;                       !- Number of Times Runperiod to be Repeated


!-   ===========  ALL OBJECTS IN CLASS: SITE:GROUNDTEMPERATURE:BUILDINGSURFACE ===========

Site:GroundTemperature:BuildingSurface,
    18,                      !- January Ground Temperature {C}
    18,                      !- February Ground Temperature {C}
    18,                      !- March Ground Temperature {C}
    18,                      !- April Ground Temperature {C}
    18,                      !- May Ground Temperature {C}
    18,                      !- June Ground Temperature {C}
    18,                      !- July Ground Temperature {C}
    18,                      !- August Ground Temperature {C}
    18,                      !- September Ground Temperature {C}
    18,                      !- October Ground Temperature {C}
    18,                      !- November Ground Temperature {C}
    18;                      !- December Ground Temperature {C}


!-   ===========  ALL OBJECTS IN CLASS: SCHEDULETYPELIMITS ===========

ScheduleTypeLimits,
    Fraction,                !- Name
    0,                       !- Lower Limit Value
    1,                       !- Upper Limit Value
    Continuous,              !- Numeric Type
    Dimensionless;           !- Unit Type

ScheduleTypeLimits,
    On/Off,                  !- Name
    ,                        !- Lower Limit Value
    ,                        !- Upper Limit Value
    Discrete,                !- Numeric Type
    Dimensionless;           !- Unit Type

ScheduleTypeLimits,
    Temperature,             !- Name
    0,                       !- Lower Limit Value
    50,                      !- Upper Limit Value
    Continuous,              !- Numeric Type
    Temperature;             !- Unit Type

ScheduleTypeLimits,
    Any Number;              !- Name


!-   ===========  ALL OBJECTS IN CLASS: SCHEDULE:COMPACT ===========

Schedule:Compact,
    Heating,                 !- Name
    On/Off,                  !- Schedule Type Limits Name
    Through: 12/31,          !- Field 1
    For: AllDays,            !- Field 2
    Until: 09:00,            !- Field 3
    0,                       !- Field 4
    Until: 17:00,            !- Field 5
    1,                       !- Field 6
    Until: 24:00,            !- Field 7
    0;                       !- Field 8

Schedule:Compact,
    Coolling,                !- Name
    On/Off,                  !- Schedule Type Limits Name
    Through: 12/31,          !- Field 1
    For: AllDays,            !- Field 2
    Until: 09:00,            !- Field 3
    0,                       !- Field 4
    Until: 17:00,            !- Field 5
    1,                       !- Field 6
    Until: 24:00,            !- Field 7
    0;                       !- Field 8

Schedule:Compact,
    Occupation,              !- Name
    On/Off,                  !- Schedule Type Limits Name
    Through: 12/31,          !- Field 1
    For: AllDays,            !- Field 2
    Until: 09:00,            !- Field 3
    0,                       !- Field 4
    Until: 17:00,            !- Field 5
    1,                       !- Field 6
    Until: 24:00,            !- Field 7
    0;                       !- Field 8

Schedule:Compact,
    Occup inv,               !- Name
    On/Off,                  !- Schedule Type Limits Name
    Through: 12/31,          !- Field 1
    For: AllDays,            !- Field 2
    Until: 09:00,            !- Field 3
    1,                       !- Field 4
    Until: 17:00,            !- Field 5
    0,                       !- Field 6
    Until: 24:00,            !- Field 7
    1;                       !- Field 8
	
!$$ ThermostatHeating 6 
Schedule:Compact,
    HeatingSetpoint,         !- Name
    Temperature,             !- Schedule Type Limits Name
    Through: 12/31,          !- Field 1
    For: AllDays,            !- Field 2
    Until: 24:00,            !- Field 3
    20;                      !- Field 4
	
!$$ ThermostatCooling 6
Schedule:Compact,
    CoolingSetpoint,         !- Name
    Temperature,             !- Schedule Type Limits Name
    Through: 12/31,          !- Field 1
    For: AllDays,            !- Field 2
    Until: 24:00,            !- Field 3
    24;                      !- Field 4

!-   ===========  ALL OBJECTS IN CLASS: SCHEDULE:CONSTANT ===========

Schedule:Constant,
    Always on,               !- Name
    On/Off,                  !- Schedule Type Limits Name
    1;                       !- Hourly Value

Schedule:Constant,
    Always off,              !- Name
    On/Off,                  !- Schedule Type Limits Name
    0;                       !- Hourly Value

Schedule:Constant,
    ThermostatControlType,   !- Name
    Any Number,              !- Schedule Type Limits Name
    4;                       !- Hourly Value


!-   ===========  ALL OBJECTS IN CLASS: MATERIAL ===========

!$$ BrickEp 3 BrickCond 4 BrickDens 5 BrickCp 6
!$$ BrickAbsoTherm 7 BrickAbsoSol 8 BrickAbsoVis 9
Material,
    Brick,                   !- Name
    MediumRough,             !- Roughness
    0.12,                    !- Thickness {m}
    0.684,                   !- Conductivity {W/m-K}
    1791.02,                 !- Density {kg/m3}
    867.32,                  !- Specific Heat {J/kg-K}
    0.9,                     !- Thermal Absorptance
    0.9,                     !- Solar Absorptance
    0.9;                     !- Visible Absorptance


!-   ===========  ALL OBJECTS IN CLASS: WINDOWMATERIAL:GLAZING ===========

WindowMaterial:Glazing,
    Clear 3mm,               !- Name
    SpectralAverage,         !- Optical Data Type
    ,                        !- Window Glass Spectral Data Set Name
    0.003,                   !- Thickness {m}
    0.837,                   !- Solar Transmittance at Normal Incidence
    0.075,                   !- Front Side Solar Reflectance at Normal Incidence
    0,                       !- Back Side Solar Reflectance at Normal Incidence
    0.898,                   !- Visible Transmittance at Normal Incidence
    0.081,                   !- Front Side Visible Reflectance at Normal Incidence
    0,                       !- Back Side Visible Reflectance at Normal Incidence
    0,                       !- Infrared Transmittance at Normal Incidence
    0.84,                    !- Front Side Infrared Hemispherical Emissivity
    0.84,                    !- Back Side Infrared Hemispherical Emissivity
    0.9,                     !- Conductivity {W/m-K}
    1,                       !- Dirt Correction Factor for Solar and Visible Transmittance
    No;                      !- Solar Diffusing


!-   ===========  ALL OBJECTS IN CLASS: MATERIALPROPERTY:MOISTUREPENETRATIONDEPTH:SETTINGS ===========

!$$ BrickIsotherm #sqrt(0.060901059825271/((13.39871602+(BrickVaporResistance-0.5)*3.185137578)*((1.5+X*7.4)*(0.66-X*0.2)*0.6^(0.66-X*0.2-1)+(14-X*6.3)*(20-X*11.5)*0.6^(20-X*11.5-1))*pi))#2
!$$ BrickIsotherm #(1.5+X*7.4)/BrickDens#3
!$$ BrickIsotherm #(0.66-X*0.2)#4
!$$ BrickIsotherm #(14-X*6.3)/BrickDens#5
!$$ BrickIsotherm #(20-X*11.5)#6
MaterialProperty:MoisturePenetrationDepth:Settings,
    Brick,                   !- Name
    0.019452177131841,       !- Moisture Penetration Depth {m}
    0.002903373496667,       !- Moisture Equation Coefficient a {dimensionless}
    0.56,                    !- Moisture Equation Coefficient b {dimensionless}
    0.006058000469006,       !- Moisture Equation Coefficient c {dimensionless}
    14.25;                   !- Moisture Equation Coefficient d {dimensionless}


!-   ===========  ALL OBJECTS IN CLASS: MATERIALPROPERTY:HEATANDMOISTURETRANSFER:SETTINGS ===========

!$$ BrickPorosity 2
!$$ BrickInitialWaterContent 3
MaterialProperty:HeatAndMoistureTransfer:Settings,
    Brick,                   !- Material Name
    0.313,                   !- Porosity {m3/m3}
    0;                       !- Initial Water Content Ratio {kg/kg}


!-   ===========  ALL OBJECTS IN CLASS: MATERIALPROPERTY:HEATANDMOISTURETRANSFER:SORPTIONISOTHERM ===========

!$$ BrickIsotherm #(1.5+X*7.4)*0.05^(0.66-X*0.2)+(14-X*6.3)*0.05^(20-X*11.5)#4
!$$ BrickIsotherm #(1.5+X*7.4)*0.1^(0.66-X*0.2)+(14-X*6.3)*0.1^(20-X*11.5)#6
!$$ BrickIsotherm #(1.5+X*7.4)*0.2^(0.66-X*0.2)+(14-X*6.3)*0.2^(20-X*11.5)#8
!$$ BrickIsotherm #(1.5+X*7.4)*0.4^(0.66-X*0.2)+(14-X*6.3)*0.4^(20-X*11.5)#10
!$$ BrickIsotherm #(1.5+X*7.4)*0.6^(0.66-X*0.2)+(14-X*6.3)*0.6^(20-X*11.5)#12
!$$ BrickIsotherm #(1.5+X*7.4)*0.7^(0.66-X*0.2)+(14-X*6.3)*0.8^(20-X*11.5)#14
!$$ BrickIsotherm #(1.5+X*7.4)*0.8^(0.66-X*0.2)+(14-X*6.3)*0.9^(20-X*11.5)#16
!$$ BrickIsotherm #(1.5+X*7.4)*0.9^(0.66-X*0.2)+(14-X*6.3)*0.9^(20-X*11.5)#18
!$$ BrickIsotherm #(1.5+X*7.4)*0.95^(0.66-X*0.2)+(14-X*6.3)*0.95^(20-X*11.5)#20
!$$ BrickIsotherm #(1.5+X*7.4)*1.00^(0.66-X*0.2)+(14-X*6.3)*1.00^(20-X*11.5)#22
MaterialProperty:HeatAndMoistureTransfer:SorptionIsotherm,
    Brick,                   !- Material Name
    10,                      !- Number of Isotherm Coordinates
    0.05,                    !- Relative Humidity Fraction 1 {dimensionless}
    0.267563301,             !- Moisture Content 1 {kg/m3}
    0.1,                     !- Relative Humidity Fraction 2 {dimensionless}
    1.432198926,             !- Moisture Content 2 {kg/m3}
    0.2,                     !- Relative Humidity Fraction 3 {dimensionless}
    2.11144679,              !- Moisture Content 3 {kg/m3}
    0.4,                     !- Relative Humidity Fraction 4 {dimensionless}
    3.112864168,             !- Moisture Content 4 {kg/m3}
    0.6,                     !- Relative Humidity Fraction 5 {dimensionless}
    3.913805199,             !- Moisture Content 5 {kg/m3}
    0.7,                     !- Relative Humidity Fraction 6 {dimensionless}
    4.325825203,             !- Moisture Content 6 {kg/m3}
    0.8,                     !- Relative Humidity Fraction 7 {dimensionless}
    5.040462263,             !- Moisture Content 7 {kg/m3}
    0.9,                     !- Relative Humidity Fraction 8 {dimensionless}
    7.31967179,              !- Moisture Content 8 {kg/m3}
    0.95,                    !- Relative Humidity Fraction 9 {dimensionless}
    10.27661375,             !- Moisture Content 9 {kg/m3}
    1,                    !- Relative Humidity Fraction 10 {dimensionless}
    16.05;                   !- Moisture Content 10 {kg/m3}


!-   ===========  ALL OBJECTS IN CLASS: MATERIALPROPERTY:HEATANDMOISTURETRANSFER:SUCTION ===========

!$$ BrickLiquidTransport #1.2E-9*exp(0*(0.02-0.005*X)+X*(log(2.7E-7)-log(1.2E-9)))#4
!$$ BrickLiquidTransport #1.2E-9*exp(2*(0.02-0.005*X)+X*(log(2.7E-7)-log(1.2E-9)))#6
!$$ BrickLiquidTransport #1.2E-9*exp(4*(0.02-0.005*X)+X*(log(2.7E-7)-log(1.2E-9)))#8
!$$ BrickLiquidTransport #1.2E-9*exp(6*(0.02-0.005*X)+X*(log(2.7E-7)-log(1.2E-9)))#10
!$$ BrickLiquidTransport #1.2E-9*exp(7*(0.02-0.005*X)+X*(log(2.7E-7)-log(1.2E-9)))#12
!$$ BrickLiquidTransport #1.2E-9*exp(8*(0.02-0.005*X)+X*(log(2.7E-7)-log(1.2E-9)))#14
!$$ BrickLiquidTransport #1.2E-9*exp(9*(0.02-0.005*X)+X*(log(2.7E-7)-log(1.2E-9)))#16
!$$ BrickLiquidTransport #1.2E-9*exp(10*(0.02-0.005*X)+X*(log(2.7E-7)-log(1.2E-9)))#18
!$$ BrickLiquidTransport #1.2E-9*exp(50*(0.02-0.005*X)+X*(log(2.7E-7)-log(1.2E-9)))#20
!$$ BrickLiquidTransport #1.2E-9*exp(100*(0.02-0.005*X)+X*(log(2.7E-7)-log(1.2E-9)))#22
!$$ BrickLiquidTransport #1.2E-9*exp(200*(0.02-0.005*X)+X*(log(2.7E-7)-log(1.2E-9)))#24
!$$ BrickLiquidTransport #1.2E-9*exp(300*(0.02-0.005*X)+X*(log(2.7E-7)-log(1.2E-9)))#26
!$$ BrickLiquidTransport #1.2E-9*exp(450*(0.02-0.005*X)+X*(log(2.7E-7)-log(1.2E-9)))#28
MaterialProperty:HeatAndMoistureTransfer:Suction,
    Brick,                   !- Material Name
    13,                      !- Number of Suction points
    0,                       !- Moisture Content 1 {kg/m3}
    1.800000E-08,            !- Liquid Transport Coefficient 1 {m2/s}
    2,                       !- Moisture Content 2 {kg/m3}
    1.864115E-08,            !- Liquid Transport Coefficient 2 {m2/s}
    4,                       !- Moisture Content 3 {kg/m3}
    1.930515E-08,            !- Liquid Transport Coefficient 3 {m2/s}
    6,                       !- Moisture Content 4 {kg/m3}
    1.999279E-08,            !- Liquid Transport Coefficient 4 {m2/s}
    7,                       !- Moisture Content 5 {kg/m3}
    2.034574E-08,            !- Liquid Transport Coefficient 5 {m2/s}
    8,                       !- Moisture Content 6 {kg/m3}
    2.070493E-08,            !- Liquid Transport Coefficient 6 {m2/s}
    9,                       !- Moisture Content 7 {kg/m3}
    2.107045E-08,            !- Liquid Transport Coefficient 7 {m2/s}
    10,                      !- Moisture Content 8 {kg/m3}
    2.144243E-08,            !- Liquid Transport Coefficient 8 {m2/s}
    50,                      !- Moisture Content 9 {kg/m3}
    4.317976E-08,            !- Liquid Transport Coefficient 9 {m2/s}
    100,                     !- Moisture Content 10 {kg/m3}
    1.035828E-07,            !- Liquid Transport Coefficient 10 {m2/s}
    200,                     !- Moisture Content 11 {kg/m3}
    5.960781E-07,            !- Liquid Transport Coefficient 11 {m2/s}
    300,                     !- Moisture Content 12 {kg/m3}
    3.430193E-06,            !- Liquid Transport Coefficient 12 {m2/s}
    450,                     !- Moisture Content 13 {kg/m3}
    4.735235E-05;            !- Liquid Transport Coefficient 13 {m2/s}


!-   ===========  ALL OBJECTS IN CLASS: MATERIALPROPERTY:HEATANDMOISTURETRANSFER:REDISTRIBUTION ===========

!$$ BrickLiquidTransport #1.2E-9*exp(0*(0.02-0.005*X)+X*(log(2.7E-7)-log(1.2E-9)))#4
!$$ BrickLiquidTransport #1.2E-9*exp(2*(0.02-0.005*X)+X*(log(2.7E-7)-log(1.2E-9)))#6
!$$ BrickLiquidTransport #1.2E-9*exp(4*(0.02-0.005*X)+X*(log(2.7E-7)-log(1.2E-9)))#8
!$$ BrickLiquidTransport #1.2E-9*exp(6*(0.02-0.005*X)+X*(log(2.7E-7)-log(1.2E-9)))#10
!$$ BrickLiquidTransport #1.2E-9*exp(7*(0.02-0.005*X)+X*(log(2.7E-7)-log(1.2E-9)))#12
!$$ BrickLiquidTransport #1.2E-9*exp(8*(0.02-0.005*X)+X*(log(2.7E-7)-log(1.2E-9)))#14
!$$ BrickLiquidTransport #1.2E-9*exp(9*(0.02-0.005*X)+X*(log(2.7E-7)-log(1.2E-9)))#16
!$$ BrickLiquidTransport #1.2E-9*exp(10*(0.02-0.005*X)+X*(log(2.7E-7)-log(1.2E-9)))#18
!$$ BrickLiquidTransport #1.2E-9*exp(50*(0.02-0.005*X)+X*(log(2.7E-7)-log(1.2E-9)))#20
!$$ BrickLiquidTransport #1.2E-9*exp(100*(0.02-0.005*X)+X*(log(2.7E-7)-log(1.2E-9)))#22
!$$ BrickLiquidTransport #1.2E-9*exp(200*(0.02-0.005*X)+X*(log(2.7E-7)-log(1.2E-9)))#24
!$$ BrickLiquidTransport #1.2E-9*exp(300*(0.02-0.005*X)+X*(log(2.7E-7)-log(1.2E-9)))#26
!$$ BrickLiquidTransport #1.2E-9*exp(450*(0.02-0.005*X)+X*(log(2.7E-7)-log(1.2E-9)))#28
MaterialProperty:HeatAndMoistureTransfer:Redistribution,
    Brick,                   !- Material Name
    13,                      !- Number of Redistribution points
    0,                       !- Moisture Content 1 {kg/m3}
    1.800000E-08,            !- Liquid Transport Coefficient 1 {m2/s}
    2,                       !- Moisture Content 2 {kg/m3}
    1.864115E-08,            !- Liquid Transport Coefficient 2 {m2/s}
    4,                       !- Moisture Content 3 {kg/m3}
    1.930515E-08,            !- Liquid Transport Coefficient 3 {m2/s}
    6,                       !- Moisture Content 4 {kg/m3}
    1.999279E-08,            !- Liquid Transport Coefficient 4 {m2/s}
    7,                       !- Moisture Content 5 {kg/m3}
    2.034574E-08,            !- Liquid Transport Coefficient 5 {m2/s}
    8,                       !- Moisture Content 6 {kg/m3}
    2.070493E-08,            !- Liquid Transport Coefficient 6 {m2/s}
    9,                       !- Moisture Content 7 {kg/m3}
    2.107045E-08,            !- Liquid Transport Coefficient 7 {m2/s}
    10,                      !- Moisture Content 8 {kg/m3}
    2.144243E-08,            !- Liquid Transport Coefficient 8 {m2/s}
    50,                      !- Moisture Content 9 {kg/m3}
    4.317976E-08,            !- Liquid Transport Coefficient 9 {m2/s}
    100,                     !- Moisture Content 10 {kg/m3}
    1.035828E-07,            !- Liquid Transport Coefficient 10 {m2/s}
    200,                     !- Moisture Content 11 {kg/m3}
    5.960781E-07,            !- Liquid Transport Coefficient 11 {m2/s}
    300,                     !- Moisture Content 12 {kg/m3}
    3.430193E-06,            !- Liquid Transport Coefficient 12 {m2/s}
    450,                     !- Moisture Content 13 {kg/m3}
    4.735235E-05;            !- Liquid Transport Coefficient 13 {m2/s}


!-   ===========  ALL OBJECTS IN CLASS: MATERIALPROPERTY:HEATANDMOISTURETRANSFER:DIFFUSION ===========

!$$ BrickVaporResistance #V+(X-0.5)*3.185137578#[4:2:24]
MaterialProperty:HeatAndMoistureTransfer:Diffusion,
    Brick,                   !- Material Name
    11,                      !- Number of Data Pairs
    0,                       !- Relative Humidity Fraction 1 {dimensionless}
    16.4177354,              !- Water Vapor Diffusion Resistance Factor 1 {dimensionless}
    0.1,                     !- Relative Humidity Fraction 2 {dimensionless}
    16.2019745,              !- Water Vapor Diffusion Resistance Factor 2 {dimensionless}
    0.2,                     !- Relative Humidity Fraction 3 {dimensionless}
    15.93170247,             !- Water Vapor Diffusion Resistance Factor 3 {dimensionless}
    0.3,                     !- Relative Humidity Fraction 4 {dimensionless}
    15.58873705,             !- Water Vapor Diffusion Resistance Factor 4 {dimensionless}
    0.4,                     !- Relative Humidity Fraction 5 {dimensionless}
    15.12736018,             !- Water Vapor Diffusion Resistance Factor 5 {dimensionless}
    0.5,                     !- Relative Humidity Fraction 6 {dimensionless}
    14.44876038,             !- Water Vapor Diffusion Resistance Factor 6 {dimensionless}
    0.6,                     !- Relative Humidity Fraction 7 {dimensionless}
    13.39871602,             !- Water Vapor Diffusion Resistance Factor 7 {dimensionless}
    0.7,                     !- Relative Humidity Fraction 8 {dimensionless}
    11.85632115,             !- Water Vapor Diffusion Resistance Factor 8 {dimensionless}
    0.8,                     !- Relative Humidity Fraction 9 {dimensionless}
    9.912285597,             !- Water Vapor Diffusion Resistance Factor 9 {dimensionless}
    0.9,                     !- Relative Humidity Fraction 10 {dimensionless}
    7.895481779,             !- Water Vapor Diffusion Resistance Factor 10 {dimensionless}
    1,                       !- Relative Humidity Fraction 11 {dimensionless}
    6.121554296;             !- Water Vapor Diffusion Resistance Factor 11 {dimensionless}


!-   ===========  ALL OBJECTS IN CLASS: MATERIALPROPERTY:HEATANDMOISTURETRANSFER:THERMALCONDUCTIVITY ===========

!$$ BrickCond #V-1.02283+X#[4:2:12]
MaterialProperty:HeatAndMoistureTransfer:ThermalConductivity,
    Brick,                   !- Material Name
    5,                       !- Number of Thermal Coordinates
    0,                       !- Moisture Content 1 {kg/m3}
    1,                       !- Thermal Conductivity 1 {W/m-K}
    36,                      !- Moisture Content 2 {kg/m3}
    1.21,                    !- Thermal Conductivity 2 {W/m-K}
    72,                      !- Moisture Content 3 {kg/m3}
    1.42,                    !- Thermal Conductivity 3 {W/m-K}
    126,                     !- Moisture Content 4 {kg/m3}
    1.55,                    !- Thermal Conductivity 4 {W/m-K}
    216,                     !- Moisture Content 5 {kg/m3}
    2;                       !- Thermal Conductivity 5 {W/m-K}


!-   ===========  ALL OBJECTS IN CLASS: CONSTRUCTION ===========

Construction,
    Exterior Wall,           !- Name
    Brick;                   !- Outside Layer

Construction,
    Exterior Floor,          !- Name
    Brick;                   !- Outside Layer

Construction,
    Exterior Ceiling,        !- Name
    Brick;                   !- Outside Layer

Construction,
    Interior Window,         !- Name
    Clear 3mm;               !- Outside Layer


!-   ===========  ALL OBJECTS IN CLASS: GLOBALGEOMETRYRULES ===========

GlobalGeometryRules,
    UpperLeftCorner,         !- Starting Vertex Position
    Counterclockwise,        !- Vertex Entry Direction
    Relative,                !- Coordinate System
    Relative,                !- Daylighting Reference Point Coordinate System
    Relative;                !- Rectangular Surface Coordinate System


!-   ===========  ALL OBJECTS IN CLASS: ZONE ===========

Zone,
    Thermal Zone 1,          !- Name
    0,                       !- Direction of Relative North {deg}
    0,                       !- X Origin {m}
    0,                       !- Y Origin {m}
    0,                       !- Z Origin {m}
    1,                       !- Type
    1,                       !- Multiplier
    autocalculate,           !- Ceiling Height {m}
    autocalculate,           !- Volume {m3}
    autocalculate,           !- Floor Area {m2}
    ,                        !- Zone Inside Convection Algorithm
    ,                        !- Zone Outside Convection Algorithm
    Yes;                     !- Part of Total Floor Area


!-   ===========  ALL OBJECTS IN CLASS: BUILDINGSURFACE:DETAILED ===========

BuildingSurface:Detailed,
    Surface 1,               !- Name
    Floor,                   !- Surface Type
    Exterior Floor,          !- Construction Name
    Thermal Zone 1,          !- Zone Name
    Ground,                  !- Outside Boundary Condition
    ,                        !- Outside Boundary Condition Object
    NoSun,                   !- Sun Exposure
    NoWind,                  !- Wind Exposure
    ,                        !- View Factor to Ground
    ,                        !- Number of Vertices
    8,                       !- Vertex 1 X-coordinate {m}
    6,                       !- Vertex 1 Y-coordinate {m}
    0,                       !- Vertex 1 Z-coordinate {m}
    8,                       !- Vertex 2 X-coordinate {m}
    0,                       !- Vertex 2 Y-coordinate {m}
    0,                       !- Vertex 2 Z-coordinate {m}
    0,                       !- Vertex 3 X-coordinate {m}
    0,                       !- Vertex 3 Y-coordinate {m}
    0,                       !- Vertex 3 Z-coordinate {m}
    0,                       !- Vertex 4 X-coordinate {m}
    6,                       !- Vertex 4 Y-coordinate {m}
    0;                       !- Vertex 4 Z-coordinate {m}

BuildingSurface:Detailed,
    Surface 2,               !- Name
    Wall,                    !- Surface Type
    Exterior Wall,           !- Construction Name
    Thermal Zone 1,          !- Zone Name
    Outdoors,                !- Outside Boundary Condition
    ,                        !- Outside Boundary Condition Object
    SunExposed,              !- Sun Exposure
    WindExposed,             !- Wind Exposure
    ,                        !- View Factor to Ground
    ,                        !- Number of Vertices
    0,                       !- Vertex 1 X-coordinate {m}
    6,                       !- Vertex 1 Y-coordinate {m}
    2.7,                     !- Vertex 1 Z-coordinate {m}
    0,                       !- Vertex 2 X-coordinate {m}
    6,                       !- Vertex 2 Y-coordinate {m}
    0,                       !- Vertex 2 Z-coordinate {m}
    0,                       !- Vertex 3 X-coordinate {m}
    0,                       !- Vertex 3 Y-coordinate {m}
    0,                       !- Vertex 3 Z-coordinate {m}
    0,                       !- Vertex 4 X-coordinate {m}
    0,                       !- Vertex 4 Y-coordinate {m}
    2.7;                     !- Vertex 4 Z-coordinate {m}

BuildingSurface:Detailed,
    Surface 3,               !- Name
    Wall,                    !- Surface Type
    Exterior Wall,           !- Construction Name
    Thermal Zone 1,          !- Zone Name
    Outdoors,                !- Outside Boundary Condition
    ,                        !- Outside Boundary Condition Object
    SunExposed,              !- Sun Exposure
    WindExposed,             !- Wind Exposure
    ,                        !- View Factor to Ground
    ,                        !- Number of Vertices
    8,                       !- Vertex 1 X-coordinate {m}
    0,                       !- Vertex 1 Y-coordinate {m}
    2.7,                     !- Vertex 1 Z-coordinate {m}
    8,                       !- Vertex 2 X-coordinate {m}
    0,                       !- Vertex 2 Y-coordinate {m}
    0,                       !- Vertex 2 Z-coordinate {m}
    8,                       !- Vertex 3 X-coordinate {m}
    6,                       !- Vertex 3 Y-coordinate {m}
    0,                       !- Vertex 3 Z-coordinate {m}
    8,                       !- Vertex 4 X-coordinate {m}
    6,                       !- Vertex 4 Y-coordinate {m}
    2.7;                     !- Vertex 4 Z-coordinate {m}

BuildingSurface:Detailed,
    Surface 4,               !- Name
    Wall,                    !- Surface Type
    Exterior Wall,           !- Construction Name
    Thermal Zone 1,          !- Zone Name
    Outdoors,                !- Outside Boundary Condition
    ,                        !- Outside Boundary Condition Object
    SunExposed,              !- Sun Exposure
    WindExposed,             !- Wind Exposure
    ,                        !- View Factor to Ground
    ,                        !- Number of Vertices
    8,                       !- Vertex 1 X-coordinate {m}
    6,                       !- Vertex 1 Y-coordinate {m}
    2.7,                     !- Vertex 1 Z-coordinate {m}
    8,                       !- Vertex 2 X-coordinate {m}
    6,                       !- Vertex 2 Y-coordinate {m}
    0,                       !- Vertex 2 Z-coordinate {m}
    0,                       !- Vertex 3 X-coordinate {m}
    6,                       !- Vertex 3 Y-coordinate {m}
    0,                       !- Vertex 3 Z-coordinate {m}
    0,                       !- Vertex 4 X-coordinate {m}
    6,                       !- Vertex 4 Y-coordinate {m}
    2.7;                     !- Vertex 4 Z-coordinate {m}

BuildingSurface:Detailed,
    Surface 5,               !- Name
    Wall,                    !- Surface Type
    Exterior Wall,           !- Construction Name
    Thermal Zone 1,          !- Zone Name
    Outdoors,                !- Outside Boundary Condition
    ,                        !- Outside Boundary Condition Object
    SunExposed,              !- Sun Exposure
    WindExposed,             !- Wind Exposure
    ,                        !- View Factor to Ground
    ,                        !- Number of Vertices
    0,                       !- Vertex 1 X-coordinate {m}
    0,                       !- Vertex 1 Y-coordinate {m}